Info: SIMULATION PARAMETERS:
Info: TIMESTEP               2
Info: NUMBER OF STEPS        0
Info: STEPS PER CYCLE        10
Info: FIRST LDB TIMESTEP     50
Info: LAST LDB TIMESTEP     -1
Info: HOM BACKGROUND SCALING 1
Info: MIN ATOMS PER PATCH    40
Info: INITIAL TEMPERATURE    300
Info: CENTER OF MASS MOVING INITIALLY? NO
Info: DIELECTRIC             1
Info: EXCLUDE                SCALED ONE-FOUR
Info: 1-4 ELECTROSTATICS SCALED BY 1
Info: MODIFIED 1-4 VDW PARAMETERS WILL BE USED
Info: DCD FILENAME           1znj_cooling.dcd
Info: DCD FREQUENCY          500
Info: DCD FIRST STEP         500
Info: XST FILENAME           1znj_cooling.xst
Info: XST FREQUENCY          500
Info: NO VELOCITY DCD OUTPUT
Info: NO FORCE DCD OUTPUT
Info: OUTPUT FILENAME        1znj_cooling
Info: BINARY OUTPUT FILES WILL BE USED
Info: RESTART FILENAME       1znj_cooling.restart
Info: RESTART FREQUENCY      500
Info: BINARY RESTART FILES WILL BE USED
Info: SWITCHING ACTIVE
Info: SWITCHING ON           10
Info: SWITCHING OFF          12
Info: PAIRLIST DISTANCE      13.5
Info: PAIRLIST SHRINK RATE   0.01
Info: PAIRLIST GROW RATE     0.01
Info: PAIRLIST TRIGGER       0.3
Info: PAIRLISTS PER CYCLE    2
Info: PAIRLISTS ENABLED
Info: MARGIN                 0
Info: HYDROGEN GROUP CUTOFF  2.5
Info: PATCH DIMENSION        16
Info: ENERGY OUTPUT STEPS    25
Info: CROSSTERM ENERGY INCLUDED IN DIHEDRAL
Info: TIMING OUTPUT STEPS    250
Info: HARMONIC CONSTRAINTS ACTIVE
Info: HARMONIC CONS EXP      2
Info: SPHERICAL BOUNDARY CONDITIONS ACTIVE
Info: RADIUS #1              26
Info: FORCE CONSTANT #1      10
Info: EXPONENT #1            2
Info: SPHERE BOUNDARY CENTER(9.54495, 2.62299, -11.1423)
Info: TEMPERATURE COUPLING ACTIVE
Info: COUPLING TEMPERATURE   200
Info: USING VERLET I (r-RESPA) MTS SCHEME.
Info: C1 SPLITTING OF LONG RANGE ELECTROSTATICS
Info: PLACING ATOMS IN PATCHES BY HYDROGEN GROUPS
Info: RANDOM NUMBER SEED     1716395800
Info: USE HYDROGEN BONDS?    NO
Info: COORDINATE PDB         ../common/1znj_ws.pdb
Info: STRUCTURE FILE         ../common/1znj_ws.psf
Info: PARAMETER file: CHARMM format!
Info: PARAMETERS             ../common/par_all27_prot_lipid.inp
Info: USING ARITHMETIC MEAN TO COMBINE L-J SIGMA PARAMETERS
Info: BINARY COORDINATES     ../1-2-sphere/1znj_ws_eq.restart.coor
Info: SUMMARY OF PARAMETERS:
Info: 180 BONDS
Info: 447 ANGLES
Info: 566 DIHEDRAL
Info: 46 IMPROPER
Info: 6 CROSSTERM
Info: 119 VDW
Info: 0 VDW_PAIRS
Info: 0 NBTHOLE_PAIRS
Info: STRUCTURE SUMMARY:
Info: 2444 ATOMS
Info: 1787 BONDS
Info: 1486 ANGLES
Info: 1214 DIHEDRALS
Info: 76 IMPROPERS
Info: 27 CROSSTERMS
Info: 0 EXCLUSIONS
Info: 883 CONSTRAINTS
Info: 7332 DEGREES OF FREEDOM
Info: 897 HYDROGEN GROUPS
Info: 4 ATOMS IN LARGEST HYDROGEN GROUP
Info: 897 MIGRATION GROUPS
Info: 4 ATOMS IN LARGEST MIGRATION GROUP
Info: TOTAL MASS = 15307.1 amu
Info: TOTAL CHARGE = 2.23517e-07 e
Info: ADDED 4467 IMPLICIT EXCLUSIONS
Info: NONBONDED TABLE R-SQUARED SPACING: 0.0625
Info: NONBONDED TABLE SIZE: 769 POINTS
Info: ORIGINAL ATOMS MINMAX IS -8.24346 -16.1801 -30.9969  29.0126 21.8713 10.1802
Info: ADJUSTED ATOMS MINMAX IS -3.40071 -11.4163 -25.1182  22.2083 16.8266 3.95289
Info: REMOVING COM VELOCITY 0.0625486 0.0986178 -0.0137092
TCL: Running for 5000 steps
ETITLE: TS BOND ANGLE DIHED IMPRP ELECT VDW BOUNDARY MISC KINETIC TOTAL TEMP POTENTIAL TOTAL3 TEMPAVG
ENERGY: 0 92.8837 271.1915 132.1815 19.6285 -7738.4734 578.5226 0.0002 0.0000 2212.7632 -4431.3023 303.7406 -6644.0655 -4396.6573 303.7406
ENERGY: 1000 749.2879 624.1662 140.1127 14.4963 -9329.5402 884.8976 184.4605 0.0000 1826.2665 -4905.8526 250.6872 -6732.1191 -4832.1246 249.3576
ENERGY: 2000 808.6605 587.6052 134.2968 14.2391 -9562.8888 921.1007 195.2347 0.0000 1682.6391 -5219.1127 230.9718 -6901.7518 -5161.7806 230.5916
ENERGY: 3000 710.4546 578.3927 136.9837 10.9828 -9627.7129 938.8037 186.2457 0.0000 1618.3446 -5447.5050 222.1462 -7065.8496 -5375.2740 219.8634
ENERGY: 4000 735.3767 642.4605 131.4137 12.3813 -9796.4820 988.0713 186.6012 0.0000 1535.8342 -5564.3432 210.8202 -7100.1773 -5511.9315 214.7560
ENERGY: 5000 716.4226 559.5334 120.0811 12.0147 -9712.5721 922.5050 188.9712 0.0000 1525.2746 -5667.7697 209.3707 -7193.0443 -5605.3853 207.1500
