Info: SIMULATION PARAMETERS:
Info: TIMESTEP               2
Info: NUMBER OF STEPS        0
Info: STEPS PER CYCLE        10
Info: FIRST LDB TIMESTEP     50
Info: LAST LDB TIMESTEP     -1
Info: HOM BACKGROUND SCALING 1
Info: MIN ATOMS PER PATCH    40
Info: VELOCITY FILE          ../1-2-sphere/1znj_ws_eq.restart.vel
Info: CENTER OF MASS MOVING INITIALLY? NO
Info: DIELECTRIC             1
Info: EXCLUDE                SCALED ONE-FOUR
Info: 1-4 ELECTROSTATICS SCALED BY 1
Info: MODIFIED 1-4 VDW PARAMETERS WILL BE USED
Info: DCD FILENAME           1znj-nvt.dcd
Info: DCD FREQUENCY          50
Info: DCD FIRST STEP         50
Info: NO EXTENDED SYSTEM TRAJECTORY OUTPUT
Info: NO VELOCITY DCD OUTPUT
Info: NO FORCE DCD OUTPUT
Info: OUTPUT FILENAME        1znj-nvt
Info: BINARY OUTPUT FILES WILL BE USED
Info: RESTART FILENAME       1znj-nvt.restart
Info: RESTART FREQUENCY      50
Info: BINARY RESTART FILES WILL BE USED
Info: SWITCHING ACTIVE
Info: SWITCHING ON           10
Info: SWITCHING OFF          12
Info: PAIRLIST DISTANCE      13.5
Info: PAIRLIST SHRINK RATE   0.01
Info: PAIRLIST GROW RATE     0.01
Info: PAIRLIST TRIGGER       0.3
Info: PAIRLISTS PER CYCLE    2
Info: PAIRLISTS ENABLED
Info: MARGIN                 0
Info: HYDROGEN GROUP CUTOFF  2.5
Info: PATCH DIMENSION        16
Info: ENERGY OUTPUT STEPS    50
Info: CROSSTERM ENERGY INCLUDED IN DIHEDRAL
Info: TIMING OUTPUT STEPS    500
Info: PRESSURE OUTPUT STEPS  50
Info: SPHERICAL BOUNDARY CONDITIONS ACTIVE
Info: RADIUS #1              26
Info: FORCE CONSTANT #1      10
Info: EXPONENT #1            2
Info: SPHERE BOUNDARY CENTER(9.54495, 2.62299, -11.1423)
Info: LANGEVIN DYNAMICS ACTIVE
Info: LANGEVIN TEMPERATURE   310
Info: LANGEVIN USING BBK INTEGRATOR
Info: LANGEVIN DAMPING COEFFICIENT IS 5 INVERSE PS
Info: LANGEVIN DYNAMICS NOT APPLIED TO HYDROGENS
Info: USING VERLET I (r-RESPA) MTS SCHEME.
Info: C1 SPLITTING OF LONG RANGE ELECTROSTATICS
Info: PLACING ATOMS IN PATCHES BY HYDROGEN GROUPS
Info: RIGID BONDS TO HYDROGEN : ALL
Info:         ERROR TOLERANCE : 1e-08
Info:          MAX ITERATIONS : 100
Info: RIGID WATER USING SETTLE ALGORITHM
Info: RANDOM NUMBER SEED     1716390886
Info: USE HYDROGEN BONDS?    NO
Info: COORDINATE PDB         ../common/1znj_ws.pdb
Info: STRUCTURE FILE         ../common/1znj_ws.psf
Info: PARAMETER file: CHARMM format!
Info: PARAMETERS             ../common/par_all27_prot_lipid.inp
Info: USING ARITHMETIC MEAN TO COMBINE L-J SIGMA PARAMETERS
Info: BINARY COORDINATES     ../1-2-sphere/1znj_ws_eq.restart.coor
Info: SUMMARY OF PARAMETERS:
Info: 180 BONDS
Info: 447 ANGLES
Info: 566 DIHEDRAL
Info: 46 IMPROPER
Info: 6 CROSSTERM
Info: 119 VDW
Info: 0 VDW_PAIRS
Info: 0 NBTHOLE_PAIRS
Info: STRUCTURE SUMMARY:
Info: 2444 ATOMS
Info: 1787 BONDS
Info: 1486 ANGLES
Info: 1214 DIHEDRALS
Info: 76 IMPROPERS
Info: 27 CROSSTERMS
Info: 0 EXCLUSIONS
Info: 2209 RIGID BONDS
Info: 5123 DEGREES OF FREEDOM
Info: 897 HYDROGEN GROUPS
Info: 4 ATOMS IN LARGEST HYDROGEN GROUP
Info: 897 MIGRATION GROUPS
Info: 4 ATOMS IN LARGEST MIGRATION GROUP
Info: TOTAL MASS = 15307.1 amu
Info: TOTAL CHARGE = 2.23517e-07 e
Info: ADDED 4467 IMPLICIT EXCLUSIONS
Info: NONBONDED TABLE R-SQUARED SPACING: 0.0625
Info: NONBONDED TABLE SIZE: 769 POINTS
Info: ORIGINAL ATOMS MINMAX IS -8.24346 -16.1801 -30.9969  29.0126 21.8713 10.1802
Info: ADJUSTED ATOMS MINMAX IS -3.40071 -11.4163 -25.1182  22.2083 16.8266 3.95289
Info: REMOVING COM VELOCITY 0.0466227 -0.0517883 -0.105525
TCL: Running for 100000 steps
ETITLE: TS BOND ANGLE DIHED IMPRP ELECT VDW BOUNDARY MISC KINETIC TOTAL TEMP POTENTIAL TOTAL3 TEMPAVG
ENERGY: 0 92.8837 271.1915 132.1815 19.6285 -7738.4734 578.5226 0.0000 0.0000 1497.7051 -5146.3606 294.2337 -6644.0657 -5140.1996 294.2337
ENERGY: 20000 88.7927 270.3112 152.0443 16.3151 -7910.6457 667.7685 0.0000 0.0000 1662.2286 -5053.1853 326.5553 -6715.4139 -5042.2863 317.5288
ENERGY: 40000 97.8280 275.5259 141.3093 14.5805 -7892.6431 653.9844 0.0000 0.0000 1604.8739 -5104.5410 315.2876 -6709.4149 -5100.0056 308.9655
ENERGY: 60000 115.5381 284.1927 142.4472 14.1194 -7903.7597 633.9342 0.0000 0.0000 1516.8012 -5196.7269 297.9852 -6713.5280 -5187.6830 303.9801
ENERGY: 80000 98.4103 267.6328 139.9352 18.1517 -7882.7207 659.5182 0.0000 0.0000 1566.7608 -5132.3115 307.8001 -6699.0723 -5125.4911 311.1024
ENERGY: 100000 92.0269 258.5791 138.9993 17.2191 -7853.7676 628.0230 0.0000 0.0000 1553.6356 -5165.2846 305.2215 -6718.9202 -5160.6519 306.8874
