Info: SIMULATION PARAMETERS:
Info: TIMESTEP               2
Info: NUMBER OF STEPS        0
Info: STEPS PER CYCLE        10
Info: FIRST LDB TIMESTEP     50
Info: LAST LDB TIMESTEP     -1
Info: HOM BACKGROUND SCALING 1
Info: MIN ATOMS PER PATCH    40
Info: INITIAL TEMPERATURE    310
Info: CENTER OF MASS MOVING INITIALLY? NO
Info: DIELECTRIC             1
Info: EXCLUDE                SCALED ONE-FOUR
Info: 1-4 ELECTROSTATICS SCALED BY 1
Info: MODIFIED 1-4 VDW PARAMETERS WILL BE USED
Info: DCD FILENAME           1znj_ws_eq.dcd
Info: DCD FREQUENCY          250
Info: DCD FIRST STEP         250
Info: NO EXTENDED SYSTEM TRAJECTORY OUTPUT
Info: NO VELOCITY DCD OUTPUT
Info: NO FORCE DCD OUTPUT
Info: OUTPUT FILENAME        1znj_ws_eq
Info: BINARY OUTPUT FILES WILL BE USED
Info: RESTART FILENAME       1znj_ws_eq.restart
Info: RESTART FREQUENCY      500
Info: BINARY RESTART FILES WILL BE USED
Info: SWITCHING ACTIVE
Info: SWITCHING ON           10
Info: SWITCHING OFF          12
Info: PAIRLIST DISTANCE      14
Info: PAIRLIST SHRINK RATE   0.01
Info: PAIRLIST GROW RATE     0.01
Info: PAIRLIST TRIGGER       0.3
Info: PAIRLISTS PER CYCLE    2
Info: PAIRLISTS ENABLED
Info: MARGIN                 0
Info: HYDROGEN GROUP CUTOFF  2.5
Info: PATCH DIMENSION        16.5
Info: ENERGY OUTPUT STEPS    100
Info: CROSSTERM ENERGY INCLUDED IN DIHEDRAL
Info: TIMING OUTPUT STEPS    1000
Info: SPHERICAL BOUNDARY CONDITIONS ACTIVE
Info: RADIUS #1              26
Info: FORCE CONSTANT #1      10
Info: EXPONENT #1            2
Info: SPHERE BOUNDARY CENTER(9.54495, 2.62299, -11.1423)
Info: LANGEVIN DYNAMICS ACTIVE
Info: LANGEVIN TEMPERATURE   310
Info: LANGEVIN USING BBK INTEGRATOR
Info: LANGEVIN DAMPING COEFFICIENT IS 1 INVERSE PS
Info: LANGEVIN DYNAMICS NOT APPLIED TO HYDROGENS
Info: MULTILEVEL SUMMATION METHOD (MSM) FOR ELECTROSTATICS ACTIVE
Info: MSM WITH C1 CUBIC INTERPOLATION AND C2 TAYLOR SPLITTING
Info: FULL ELECTROSTATIC EVALUATION FREQUENCY      2
Info: USING VERLET I (r-RESPA) MTS SCHEME.
Info: C1 SPLITTING OF LONG RANGE ELECTROSTATICS
Info: PLACING ATOMS IN PATCHES BY HYDROGEN GROUPS
Info: RIGID BONDS TO HYDROGEN : ALL
Info:         ERROR TOLERANCE : 1e-08
Info:          MAX ITERATIONS : 100
Info: RIGID WATER USING SETTLE ALGORITHM
Info: RANDOM NUMBER SEED     1716389388
Info: USE HYDROGEN BONDS?    NO
Info: COORDINATE PDB         ../common/1znj_ws.pdb
Info: STRUCTURE FILE         ../common/1znj_ws.psf
Info: PARAMETER file: CHARMM format!
Info: PARAMETERS             ../common/par_all27_prot_lipid.inp
Info: USING ARITHMETIC MEAN TO COMBINE L-J SIGMA PARAMETERS
Info: SUMMARY OF PARAMETERS:
Info: 180 BONDS
Info: 447 ANGLES
Info: 566 DIHEDRAL
Info: 46 IMPROPER
Info: 6 CROSSTERM
Info: 119 VDW
Info: 0 VDW_PAIRS
Info: 0 NBTHOLE_PAIRS
Info: STRUCTURE SUMMARY:
Info: 2444 ATOMS
Info: 1787 BONDS
Info: 1486 ANGLES
Info: 1214 DIHEDRALS
Info: 76 IMPROPERS
Info: 27 CROSSTERMS
Info: 0 EXCLUSIONS
Info: 2209 RIGID BONDS
Info: 5123 DEGREES OF FREEDOM
Info: 897 HYDROGEN GROUPS
Info: 4 ATOMS IN LARGEST HYDROGEN GROUP
Info: 897 MIGRATION GROUPS
Info: 4 ATOMS IN LARGEST MIGRATION GROUP
Info: TOTAL MASS = 15307.1 amu
Info: TOTAL CHARGE = 2.23517e-07 e
Info: ADDED 4467 IMPLICIT EXCLUSIONS
Info: NONBONDED TABLE R-SQUARED SPACING: 0.0625
Info: NONBONDED TABLE SIZE: 769 POINTS
Info: REMOVING COM VELOCITY -0.00382464 0.0137977 0.0460636
Info: MSM extending maximum X to 60 A
Info: MSM extending maximum Y to 60 A
Info: MSM extending maximum Z to 46 A
Info: MSM using C1 cubic interpolation
Info: MSM using C2 Taylor splitting function
Info: MSM block size decomposition along X is 8 grid points
Info: MSM block size decomposition along Y is 8 grid points
Info: MSM block size decomposition along Z is 8 grid points
Info: MSM grid spacing is 2.5 A
Info: MSM non-periodic padding is 2.5 A
Info: MSM using 3 levels
Info:     level 0:  [-1..33] x [-1..35] x [-1..35]
Info:     level 1:  [-2..18] x [-2..19] x [-2..19]
Info:     level 2:  [-2..10] x [-2..11] x [-2..11]
Info: MSM finished calculating stencils
Info: MSM finished creating map for grid levels
Info: MSM finished creating map for patches
Info: MSM has 27 interpolation / anterpolation objects (one per patch)
Info: MSM grid level 0 decomposed into 125 blocks ( 5 x 5 x 5 )
Info: MSM grid level 1 decomposed into 27 blocks ( 3 x 3 x 3 )
Info: MSM grid level 2 decomposed into 8 blocks ( 2 x 2 x 2 )
Info: MSM grid cutoff calculation decomposed into 5940 work objects
TCL: Minimizing for 1000 steps
ETITLE: TS BOND ANGLE DIHED IMPRP ELECT VDW BOUNDARY MISC KINETIC TOTAL TEMP POTENTIAL TOTAL3 TEMPAVG
ENERGY: 0 693855.4713 188697.3387 191.7302 147.9922 -5156.1252 188096.7211 0.0000 0.0000 0.0000 1065833.1284 0.0000 1065833.1284 1065833.1284 0.0000
ENERGY: 200 12580.5494 8451.0159 504.3525 142.3759 -5591.7133 3385.0633 0.0000 0.0000 0.0000 19471.6438 0.0000 19471.6438 19471.6438 0.0000
ENERGY: 400 1435.7666 2235.3552 493.9011 99.9515 -6274.5994 1221.0118 0.0000 0.0000 0.0000 -788.6133 0.0000 -788.6133 -788.6133 0.0000
ENERGY: 600 137.9166 532.4232 260.9268 23.9811 -7366.7598 800.7618 0.0000 0.0000 0.0000 -5610.7503 0.0000 -5610.7503 -5610.7503 0.0000
ENERGY: 800 45.9245 174.9255 230.8489 13.3733 -8071.6826 835.6477 0.0000 0.0000 0.0000 -6770.9627 0.0000 -6770.9627 -6770.9627 0.0000
ENERGY: 1000 34.8373 136.0090 163.8557 8.0755 -8512.7897 936.1752 0.0000 0.0000 0.0000 -7233.8371 0.0000 -7233.8371 -7233.8371 0.0000
TCL: Running for 2500 steps
ETITLE: TS BOND ANGLE DIHED IMPRP ELECT VDW BOUNDARY MISC KINETIC TOTAL TEMP POTENTIAL TOTAL3 TEMPAVG
ENERGY: 1000 34.8373 136.0090 163.8557 8.0755 -8512.7897 936.1752 0.0000 0.0000 1608.8478 -5624.9892 316.0683 -7233.8371 -5626.5521 316.0683
ENERGY: 1500 87.8021 233.3456 156.6227 15.6734 -7803.2653 709.4254 0.0000 0.0000 1265.7900 -5334.6060 248.6725 -6600.3960 -5330.1696 245.7824
ENERGY: 2000 87.9544 214.6750 159.3247 14.3299 -7859.9500 760.7520 0.0000 0.0000 1359.0261 -5263.8879 266.9893 -6622.9140 -5259.6949 263.3079
ENERGY: 2500 101.7481 267.9969 149.4251 17.0213 -7719.9902 658.7836 0.0000 0.0000 1427.8472 -5097.1681 280.5096 -6525.0153 -5091.8380 282.0168
ENERGY: 3000 96.2635 261.6828 145.4385 11.6892 -7743.8491 692.3210 0.0000 0.0000 1469.1818 -5067.2723 288.6301 -6536.4541 -5060.7204 294.8158
ENERGY: 3500 92.8837 271.1915 132.1815 19.6285 -7525.0550 578.5226 0.0000 0.0000 1498.0403 -4932.6070 294.2995 -6430.6473 -4925.4830 299.4933
